Circuit: * C:\School stuff\Bagby Lab\Projects\OPSpec\logTIA_MAX4206.asc

WARNING: Node NC_02 is floating.

WARNING: Less than two connections to node 5V.  This node is used by V1.
WARNING: Less than two connections to node -5V.  This node is used by V2.
WARNING: Less than two connections to node X1:_OPLOG:103.  This node is used by E:X1:_OPLOG:103.
WARNING: Less than two connections to node X1:_OPREF:103.  This node is used by E:X1:_OPREF:103.
WARNING: Less than two connections to node X1:_OS_SC:103.  This node is used by E:X1:_OS_SC:103.
WARNING: Less than two connections to node NC_01.  This node is used by R1.
WARNING: Less than two connections to node NC_02.  This node is used by R1.
Direct Newton iteration failed to find .op point.  (Use ".option noopiter" to skip.)
Starting Gmin stepping
Gmin = 10
vernier = 0.5
vernier = 0.25
vernier = 0.125
Gmin = 7.08
vernier = 0.0625
vernier = 0.03125
vernier = 0.015625
vernier = 0.0078125
vernier = 0.00390625
Gmin = 7.29412
vernier = 0.00195313
vernier = 0.000976563
vernier = 0.000488281
Gmin = 0
Gmin = 0
Gmin stepping failed

Starting source stepping with srcstepmethod=0
Source Step = 3.0303%
Source Step = 33.3333%
vernier = 0.25
Source Step = 30.3208%
Source Step = 30.3504%
Source Step = 30.38%
Source Step = 30.4096%
Source Step = 30.4392%
vernier = 0.00146484
Source Step = 30.4732%
Source Step = 30.5176%
Source Step = 30.562%
Source Step = 30.6064%
Source Step = 30.6507%
vernier = 0.00219727
Source Step = 30.6996%
Source Step = 30.7662%
Source Step = 30.8327%
Source Step = 30.8993%
Source Step = 30.9659%
vernier = 0.0032959
Source Step = 31.0358%
Source Step = 31.1357%
Source Step = 31.2356%
Source Step = 31.3354%
Source Step = 31.4353%
Source Step = 31.5352%
vernier = 0.00494385
Source Step = 31.685%
Source Step = 31.8348%
Source Step = 31.9846%
Source Step = 32.1345%
Source Step = 32.2843%
vernier = 0.00741577
Source Step = 32.5015%
Source Step = 32.7262%
Source Step = 32.9509%
Source Step = 33.1757%
Source Step = 33.4004%
vernier = 0.0111237
Source Step = 33.715%
Source Step = 34.0521%
Source Step = 34.3891%
Source Step = 34.7262%
Source Step = 35.0633%
vernier = 0.0166855
Source Step = 35.5184%
Source Step = 36.024%
Source Step = 36.5296%
Source Step = 37.0352%
Source Step = 37.5409%
vernier = 0.0250282
Source Step = 38.1982%
Source Step = 38.9566%
Source Step = 39.715%
Source Step = 40.4735%
Source Step = 41.2319%
vernier = 0.0375423
Source Step = 42.1799%
Source Step = 43.3176%
Source Step = 44.4552%
Source Step = 45.5929%
Source Step = 46.7305%
vernier = 0.0563135
Source Step = 48.0957%
Source Step = 49.8022%
Source Step = 51.5086%
Source Step = 53.2151%
Source Step = 54.9216%
vernier = 0.0844703
Source Step = 56.884%
Source Step = 59.4437%
Source Step = 62.0034%
Source Step = 64.5631%
Source Step = 67.1228%
vernier = 0.126705
Source Step = 69.9385%
Source Step = 73.7781%
Source Step = 77.6176%
Source Step = 81.4572%
Source Step = 85.2967%
vernier = 0.190058
Source Step = 89.3283%
Source Step = 95.0876%
Source Step = 96.8514%
Source Step = 96.9414%
Source Step = 97.0314%
Source Step = 97.1214%
Source Step = 97.2114%
Source Step = 97.3014%
Source Step = 97.3913%
Source Step = 97.4813%
Source Step = 97.5713%
Source Step = 97.6613%
Source Step = 97.7513%
Source Step = 97.8413%
Source Step = 97.9313%
Source Step = 98.0213%
Source Step = 98.1113%
Source Step = 98.2012%
Source Step = 98.2912%
Source Step = 98.3812%
Source Step = 98.4712%
Source Step = 98.5612%
Source Step = 98.6512%
Source Step = 98.7412%
Source Step = 98.8312%
Source Step = 98.9212%
Source Step = 99.0112%
Source Step = 99.1011%
Source Step = 99.1911%
Source Step = 99.2811%
Source Step = 99.3711%
Source Step = 99.4611%
Source Step = 99.5511%
Source Step = 99.6411%
Source Step = 99.7311%
Source Step = 99.8211%
Source Step = 99.9111%
Source Step = 100%
Source Step = 100%
Source Step = 100%
Source Step = 100%
Source Step = 100%
Source Step = 100%
Source Step = 100%
Source Step = 100%
Source Step = 100%
Source Step = 100%
Source Step = 100%
Source Step = 100%
Source Step = 100%
Source Step = 100%
Source Step = 100%
Source Step = 100%
Source Step = 100%
Source Step = 100%
Source Step = 100%
Source Step = 100%
Source Step = 100%
Source Step = 100%
Source Step = 100%
Source Step = 100%
Source Step = 100%
Source Step = 100%
Source Step = 100%
Source Step = 100%
Source Step = 100%
Source stepping aborted.
Starting source stepping with srcstepmethod=1
Source Step = 3.0303%
vernier = 0.25
Source Step = 0.378788%
Source Step = 0.852273%
Source Step = 1.32576%
Source Step = 1.79924%
Source Step = 2.27273%
vernier = 0.0234375
Source Step = 2.91193%
Source Step = 3.62216%
Source Step = 4.33239%
Source Step = 5.04261%
Source Step = 5.75284%
vernier = 0.0351563
Source Step = 6.67614%
Source Step = 7.74148%
Source Step = 8.80682%
Source Step = 9.35946%
Source Step = 9.42605%
Source Step = 9.49263%
Source Step = 9.55922%
Source Step = 9.6258%
Source Step = 9.69238%
vernier = 0.0032959
Source Step = 9.78893%
Source Step = 9.88881%
Source Step = 9.98868%
Source Step = 10.0886%
Source Step = 10.1884%
vernier = 0.00494385
Source Step = 10.3283%
Source Step = 10.4781%
Source Step = 10.6279%
Source Step = 10.7777%
Source Step = 10.9275%
vernier = 0.00741577
Source Step = 11.1298%
Source Step = 11.3545%
Source Step = 11.5792%
Source Step = 11.8039%
Source Step = 12.0286%
vernier = 0.0111237
Source Step = 12.3208%
Source Step = 12.6579%
Source Step = 12.9949%
Source Step = 13.332%
Source Step = 13.6691%
vernier = 0.0166855
Source Step = 14.0905%
Source Step = 14.5961%
Source Step = 15.1017%
Source Step = 15.6073%
Source Step = 16.1129%
vernier = 0.0250282
Source Step = 16.7197%
Source Step = 17.4781%
Source Step = 18.2365%
Source Step = 18.995%
Source Step = 19.7534%
vernier = 0.0375423
Source Step = 20.6256%
Source Step = 21.7632%
Source Step = 22.9009%
Source Step = 24.0385%
Source Step = 25.1762%
vernier = 0.0563135
Source Step = 26.4276%
Source Step = 28.1341%
Source Step = 29.8405%
Source Step = 31.547%
Source Step = 33.2535%
vernier = 0.0844703
Source Step = 35.0453%
Source Step = 37.605%
Source Step = 40.1647%
Source Step = 42.7244%
Source Step = 45.2841%
Source Step = 47.8438%
vernier = 0.126705
Source Step = 51.6834%
Source Step = 55.5229%
Source Step = 59.3625%
Source Step = 63.202%
Source Step = 67.0416%
vernier = 0.190058
Source Step = 72.6089%
Source Step = 78.3683%
Source Step = 84.1276%
Source Step = 89.887%
Source Step = 95.6463%
vernier = 0.285087
Source Step = 98.5327%
Source Step = 98.5665%
Source Step = 98.6002%
Source Step = 98.6339%
Source Step = 98.6677%
Source Step = 98.7014%
Source Step = 98.7352%
Source Step = 98.7689%
Source Step = 98.8027%
Source Step = 98.8364%
Source Step = 98.8702%
Source Step = 98.9039%
Source Step = 98.9377%
Source Step = 98.9714%
Source Step = 99.0052%
Source Step = 99.0389%
Source Step = 99.0726%
Source Step = 99.1064%
Source Step = 99.1401%
Source Step = 99.1739%
Source Step = 99.2076%
Source Step = 99.2414%
Source Step = 99.2751%
Source Step = 99.3089%
Source Step = 99.3426%
Source Step = 99.3764%
Source Step = 99.4101%
Source Step = 99.4439%
Source Step = 99.4776%
Source Step = 99.5113%
Source Step = 99.5451%
Source Step = 99.5788%
Source Step = 99.6126%
Source Step = 99.6463%
Source Step = 99.6801%
Source Step = 99.7138%
Source Step = 99.7476%
Source Step = 99.7813%
Source Step = 99.8151%
Source Step = 99.8488%
Source Step = 99.8826%
Source Step = 99.9163%
Source Step = 99.95%
Source Step = 99.9838%
Source Step = 100%
Source Step = 100%
Source Step = 100%
Source Step = 100%
Source Step = 100%
Source Step = 100%
Source Step = 100%
Source Step = 100%
Source Step = 100%
Source Step = 100%
Source Step = 100%
Source Step = 100%
Source Step = 100%
Source Step = 100%
Source Step = 100%
Source Step = 100%
Source Step = 100%
Source Step = 100%
Source Step = 100%
Source Step = 100%
Source Step = 100%
Source Step = 100%
Source Step = 100%
Source Step = 100%
Source Step = 100%
Source Step = 100%
Source Step = 100%
Source Step = 100%
Source Step = 100%
Source Step = 100%
Source Step = 100%
Source Step = 100%
Source Step = 100%
Source Step = 100%
Source Step = 100%
Source Step = 100%
Source Step = 100%
Source Step = 100%
Source Step = 100%
Source Step = 100%
Source Step = 100%
Source Step = 100%
Source Step = 100%
Source Step = 100%
Source Step = 100%
Source Step = 100%
Source Step = 100%
Source Step = 100%
Source Step = 100%
Source Step = 100%
Source Step = 100%
Source Step = 100%
Source Step = 100%
Source Step = 100%
Source Step = 100%
Source Step = 100%
Source Step = 100%
Source Step = 100%
Source Step = 100%
Source Step = 100%
Source Step = 100%
Source Step = 100%
Source Step = 100%
Source Step = 100%
Source Step = 100%
Source Step = 100%
Source Step = 100%
Source Step = 100%
Source Step = 100%
Source Step = 100%
Source Step = 100%
Source Step = 100%
Source Step = 100%
Source Step = 100%
Source Step = 100%
Source Step = 100%
Source Step = 100%
Source Step = 100%
Source Step = 100%
Source Step = 100%
Source Step = 100%
Source Step = 100%
Source Step = 100%
Source Step = 100%
Source Step = 100%
Source Step = 100%
Source Step = 100%
Source Step = 100%
Source Step = 100%
Source Step = 100%
Source Step = 100%
Source Step = 100%
Source Step = 100%
Source Step = 100%
Source Step = 100%
Source Step = 100%
Source Step = 100%
Source Step = 100%
Source Step = 100%
Source Step = 100%
Source Step = 100%
Source Step = 100%
Source Step = 100%
Source Step = 100%
Source Step = 100%
Source Step = 100%
Source Step = 100%
Source stepping aborted.
Pseudo Transient succeeded in finding the operating point at 205.482 ms.
Changing Tseed to 9.76563e-011

Date: Fri Sep 09 14:23:05 2022
Total elapsed time: 16.463 seconds.

tnom = 27
temp = 27
method = modified trap
totiter = 355796
traniter = 4510
tranpoints = 1849
accept = 1544
rejected = 2393
matrix size = 179
fillins = 286
solver = Normal
Thread vector: 16.4/10.9[4] 9.5/4.3[4] 4.0/3.1[4] 0.7/3.0[1]  2592/500
Matrix Compiler1: 20.49 KB object code size  9.6/4.7/[2.2]
Matrix Compiler2: 19.47 KB object code size  6.3/7.6/[1.5]

