Circuit: * C:\School stuff\Bagby Lab\Projects\OPSpec\photodiodeTIA_array.asc

Early termination of direct N-R iteration.
Direct Newton iteration failed to find .op point.  (Use ".option noopiter" to skip.)
Starting Gmin stepping
Gmin = 10
vernier = 0.5
vernier = 0.25
vernier = 0.125
Gmin = 5.5165
vernier = 0.0625
vernier = 0.03125
vernier = 0.015625
vernier = 0.0078125
Gmin = 5.49501
vernier = 0.00390625
vernier = 0.00195313
vernier = 0.000976563
vernier = 0.000488281
Gmin = 5.50104
Gmin = 0
Gmin stepping failed

Starting source stepping with srcstepmethod=0
Source Step = 3.0303%
Source Step = 23.4848%
Source Step = 31.0606%
Source Step = 38.6364%
Source Step = 46.2121%
Source Step = 53.7879%
vernier = 0.375
Source Step = 62.1212%
Source Step = 73.4848%
Source Step = 84.8485%
Source Step = 96.2121%
Source stepping succeeded in finding the operating point.


Date: Tue Jul 12 20:22:22 2022
Total elapsed time: 2.309 seconds.

tnom = 27
temp = 27
method = trap
totiter = 32116
traniter = 0
tranpoints = 0
accept = 0
rejected = 0
matrix size = 110
fillins = 709
solver = Normal
Thread vector: 12.7/9.2[3] 0.0/0.0[0] 9.2/4.5[3] 0.5/1.5[1]  2592/500
Matrix Compiler1:    5131 opcodes  13.0/4.5/[0.8]
Matrix Compiler2: 20.73 KB object code size  1.9/2.1/[0.7]

